LAMMPS (27 Jun 2024)

###### declaração de variáveis
variable t equal 1.0

######## configurações da simulação
units       lj
dimension 3
atom_style atomic
neighbor 0.3 bin
neigh_modify every 10 delay 10 check yes
timestep 0.01

######## Leitura da configuração inicial
read_data out_0.5.data
Reading data file ...
  orthogonal box = (-5.3860867 -5.3860867 -16.15826) to (5.3860867 5.3860867 16.15826)
  reading atoms ...
  1000 atoms
  reading velocities ...
  1000 velocities

mass 1 1.0

####### Definição do campo de forças
pair_style  lj/cut 2.5
pair_coeff 1 1 1.0 1.0

####### Definir a dinâmica e termostato
fix fxstandard all nve
fix fxlange all langevin $t $t 1.0 265358
fix fxlange all langevin 1 $t 1.0 265358
fix fxlange all langevin 1 1 1.0 265358

fix myrec all recenter INIT INIT INIT units box

##### dados termodinâmicos
thermo_style  custom step pe ke temp press density lx ly lz
thermo        1000

##### salvar trajetória
dump img all custom 100 traj.lammpstrj id type x y z vx vy vz

run 20000 ##### rodada

CITE-CITE-CITE-CITE-CITE-CITE-CITE-CITE-CITE-CITE-CITE-CITE-CITE

Your simulation uses code contributions which should be cited:

- Type Label Framework: https://doi.org/10.1021/acs.jpcb.3c08419

@Article{Gissinger24,
 author = {Jacob R. Gissinger, Ilia Nikiforov, Yaser Afshar, Brendon Waters, Moon-ki Choi, Daniel S. Karls, Alexander Stukowski, Wonpil Im, Hendrik Heinz, Axel Kohlmeyer, and Ellad B. Tadmor},
 title = {Type Label Framework for Bonded Force Fields in LAMMPS},
 journal = {J. Phys. Chem. B},
 year =    2024,
 volume =  128,
 number =  13,
 pages =   {3282–-3297}
}

CITE-CITE-CITE-CITE-CITE-CITE-CITE-CITE-CITE-CITE-CITE-CITE-CITE

Generated 0 of 0 mixed pair_coeff terms from geometric mixing rule
Step         PotEng         KinEng          Temp          Press         Density           Lx             Ly             Lz
0  -5.4598269      0.75555386     0.50420678    -0.21200653     0.26666667     10.772173      10.772173      32.31652
Averages over the last 11 of 21 rows, steps 10000 to 20000:
PotEng KinEng Temp Press Density Lx Ly Lz
-2.76865 1.52003 1.01437 0.0664517 0.266667 10.7722 10.7722 32.3165
Loop time of 5.50649 on 1 procs for 20000 steps with 1000 atoms
