LAMMPS (27 Jun 2024)
###### declaração de variáveis
variable rho equal 0.8
variable npart equal 1000
variable Lbox equal (1000/0.8)^(1./3.)
variable Lbox2 equal 10.7721734501594*0.5

######## configurações da simulação
units lj
dimension 3
atom_style atomic
neighbor 0.3 bin
neigh_modify every 10 delay 10 check yes
timestep 0.01

######## Definição da caixa de simulação

region box block -5.3860867250797 5.3860867250797 -5.3860867250797 5.3860867250797 -5.3860867250797 5.3860867250797
create_box 1 box
Created orthogonal box = (-5.3860867 -5.3860867 -5.3860867) to (5.3860867 5.3860867 5.3860867)
create_atoms 1 random 1000 57679 box
Created 1000 atoms

mass 1 1.0

####### Definição do campo de forças

pair_style lj/cut 2.5
pair_coeff 1 1 1.0 1.0

####### Minimização para retirar possíveis overlaps
min_style cg
minimize 0.0 1.0e-8 1000 100000
Generated 0 of 0 mixed pair_coeff terms from geometric mixing rule
Step          Temp          E_pair         E_mol          TotEng         Press
0   0              1.6420434e+10  0              1.6420434e+10  5.254542e+10
Loop time of 0.37564 on 1 procs for 435 steps with 1000 atoms

Minimization stats:
  Stopping criterion = linesearch alpha is zero
  Energy initial, next-to-last, final =
  Force two-norm initial, final = 2.0659988e+15 6.3685826
  Force max component initial, final = 1.3291941e+15 1.2559153
  Final line search alpha, max atom move = 2.0632218e-07 2.5912318e-07
  Iterations, force evaluations = 435 888

####### Definir a dinâmica e termostato

fix mydyn all nve
fix mylang all langevin 1.0 1.0 1.0 71724

##### dados termodinâmicos
thermo_style custom step temp ke pe etotal press density
thermo 1000

run 10000 #### equilibração
Generated 0 of 0 mixed pair_coeff terms from geometric mixing rule
Step          Temp          KinEng         PotEng         TotEng         Press         Density
435   0              0             -6.7784163     -6.7784163     -1.5166071      0.8
Averages over the last 6 of 12 rows, steps 6000 to 10435:
Temp KinEng PotEng TotEng Press Density
1.00303 1.50304 -5.10903 -3.60599 1.73288 0.8
Loop time of 3.38123 on 1 procs for 10000 steps with 1000 atoms

compute enpot all pe
compute enkin all ke

dump mydump all custom 100 traj.lammpstrj id type x y z vx vy vz
fix mythermo all ave/time 100 1 100 c_enkin c_enpot  file thermo_output.dat

run 10000 #### produção de resultados
Generated 0 of 0 mixed pair_coeff terms from geometric mixing rule
Step          Temp          KinEng         PotEng         TotEng         Press         Density
10435   1.0155877      1.5218582     -5.1376455     -3.6157873      1.5897198      0.8
Averages over the last 6 of 12 rows, steps 16000 to 20435:
Temp KinEng PotEng TotEng Press Density
1.00509 1.50613 -5.11341 -3.60728 1.66334 0.8
Loop time of 3.88791 on 1 procs for 10000 steps with 1000 atoms
